ACCESS-OM2
1900 1 1 0 0 0

#########################################################################################################
#                                                                                                       #
# DO NOT EDIT! Instead, edit diag_table_source.yaml and run make_diag_table.py to re-generate this file #
#                                                                                                       #
#########################################################################################################


# static 2d grid data

"ocean-2d-area_t", -1, "months", 1, "days", "time"
"ocean_model", "area_t", "area_t", "ocean-2d-area_t", "all", "none", "none", 2

"ocean-2d-area_u", -1, "months", 1, "days", "time"
"ocean_model", "area_u", "area_u", "ocean-2d-area_u", "all", "none", "none", 2

"ocean-2d-drag_coeff", -1, "months", 1, "days", "time"
"ocean_model", "drag_coeff", "drag_coeff", "ocean-2d-drag_coeff", "all", "none", "none", 2

"ocean-2d-dxt", -1, "months", 1, "days", "time"
"ocean_model", "dxt", "dxt", "ocean-2d-dxt", "all", "none", "none", 2

"ocean-2d-dxu", -1, "months", 1, "days", "time"
"ocean_model", "dxu", "dxu", "ocean-2d-dxu", "all", "none", "none", 2

"ocean-2d-dyt", -1, "months", 1, "days", "time"
"ocean_model", "dyt", "dyt", "ocean-2d-dyt", "all", "none", "none", 2

"ocean-2d-dyu", -1, "months", 1, "days", "time"
"ocean_model", "dyu", "dyu", "ocean-2d-dyu", "all", "none", "none", 2

"ocean-2d-geolat_c", -1, "months", 1, "days", "time"
"ocean_model", "geolat_c", "geolat_c", "ocean-2d-geolat_c", "all", "none", "none", 2

"ocean-2d-geolat_t", -1, "months", 1, "days", "time"
"ocean_model", "geolat_t", "geolat_t", "ocean-2d-geolat_t", "all", "none", "none", 2

"ocean-2d-geolon_c", -1, "months", 1, "days", "time"
"ocean_model", "geolon_c", "geolon_c", "ocean-2d-geolon_c", "all", "none", "none", 2

"ocean-2d-geolon_t", -1, "months", 1, "days", "time"
"ocean_model", "geolon_t", "geolon_t", "ocean-2d-geolon_t", "all", "none", "none", 2

"ocean-2d-ht", -1, "months", 1, "days", "time"
"ocean_model", "ht", "ht", "ocean-2d-ht", "all", "none", "none", 2

"ocean-2d-hu", -1, "months", 1, "days", "time"
"ocean_model", "hu", "hu", "ocean-2d-hu", "all", "none", "none", 2

"ocean-2d-kmt", -1, "months", 1, "days", "time"
"ocean_model", "kmt", "kmt", "ocean-2d-kmt", "all", "none", "none", 2

"ocean-2d-kmu", -1, "months", 1, "days", "time"
"ocean_model", "kmu", "kmu", "ocean-2d-kmu", "all", "none", "none", 2


# yearly 3d fields

"ocean-3d-age_global-1-yearly-mean-ym%4yr%2mo", 1, "years", 1, "days", "time", 1, "years"
"ocean_model", "age_global", "age_global", "ocean-3d-age_global-1-yearly-mean-ym%4yr%2mo", "all", "average", "none", 2


# yearly 3d squared fields


# monthly 3d fields

"ocean-3d-dzt-1-monthly-mean-ym%4yr%2mo", 1, "months", 1, "days", "time", 1, "years"
"ocean_model", "dzt", "dzt", "ocean-3d-dzt-1-monthly-mean-ym%4yr%2mo", "all", "average", "none", 2

"ocean-3d-pot_temp-1-monthly-mean-ym%4yr%2mo", 1, "months", 1, "days", "time", 1, "years"
"ocean_model", "pot_temp", "pot_temp", "ocean-3d-pot_temp-1-monthly-mean-ym%4yr%2mo", "all", "average", "none", 2

"ocean-3d-salt-1-monthly-mean-ym%4yr%2mo", 1, "months", 1, "days", "time", 1, "years"
"ocean_model", "salt", "salt", "ocean-3d-salt-1-monthly-mean-ym%4yr%2mo", "all", "average", "none", 2

"ocean-3d-temp-1-monthly-mean-ym%4yr%2mo", 1, "months", 1, "days", "time", 1, "years"
"ocean_model", "temp", "temp", "ocean-3d-temp-1-monthly-mean-ym%4yr%2mo", "all", "average", "none", 2


# monthly 2d fields


# monthly 2d fields with different reduction methods

"ocean-2d-eta_t-1-monthly-pow02-ym%4yr%2mo", 1, "months", 1, "days", "time", 1, "years"
"ocean_model", "eta_t", "eta_t", "ocean-2d-eta_t-1-monthly-pow02-ym%4yr%2mo", "all", "pow02", "none", 2

"ocean-2d-mld-1-monthly-max-ym%4yr%2mo", 1, "months", 1, "days", "time", 1, "years"
"ocean_model", "mld", "mld", "ocean-2d-mld-1-monthly-max-ym%4yr%2mo", "all", "max", "none", 2

"ocean-2d-surface_temp-1-monthly-min-ym%4yr%2mo", 1, "months", 1, "days", "time", 1, "years"
"ocean_model", "surface_temp", "surface_temp", "ocean-2d-surface_temp-1-monthly-min-ym%4yr%2mo", "all", "min", "none", 2


# daily 2d fields


# monthly scalar timeseries

"ocean-scalar-1-monthly-ym%4yr%2mo", 1, "months", 1, "days", "time", 1, "years"
"ocean_model", "salt_global_ave", "salt_global_ave", "ocean-scalar-1-monthly-ym%4yr%2mo", "all", "average", "none", 1
"ocean_model", "salt_surface_ave", "salt_surface_ave", "ocean-scalar-1-monthly-ym%4yr%2mo", "all", "average", "none", 1
"ocean_model", "temp_global_ave", "temp_global_ave", "ocean-scalar-1-monthly-ym%4yr%2mo", "all", "average", "none", 1
"ocean_model", "temp_surface_ave", "temp_surface_ave", "ocean-scalar-1-monthly-ym%4yr%2mo", "all", "average", "none", 1
"ocean_model", "no3_global_ave", "no3_global_ave", "ocean-scalar-1-monthly-ym%4yr%2mo", "all", "average", "none", 1
"ocean_model", "o2_global_ave", "o2_global_ave", "ocean-scalar-1-monthly-ym%4yr%2mo", "all", "average", "none", 1
"ocean_model", "fe_global_ave", "fe_global_ave", "ocean-scalar-1-monthly-ym%4yr%2mo", "all", "average", "none", 1
"ocean_model", "dic_global_ave", "dic_global_ave", "ocean-scalar-1-monthly-ym%4yr%2mo", "all", "average", "none", 1
"ocean_model", "dicr_global_ave", "dicr_global_ave", "ocean-scalar-1-monthly-ym%4yr%2mo", "all", "average", "none", 1
"ocean_model", "dicp_global_ave", "dicp_global_ave", "ocean-scalar-1-monthly-ym%4yr%2mo", "all", "average", "none", 1
"ocean_model", "alk_global_ave", "alk_global_ave", "ocean-scalar-1-monthly-ym%4yr%2mo", "all", "average", "none", 1
"ocean_model", "caco3_global_ave", "caco3_global_ave", "ocean-scalar-1-monthly-ym%4yr%2mo", "all", "average", "none", 1
"ocean_model", "phy_global_ave", "phy_global_ave", "ocean-scalar-1-monthly-ym%4yr%2mo", "all", "average", "none", 1
"ocean_model", "pchl_global_ave", "pchl_global_ave", "ocean-scalar-1-monthly-ym%4yr%2mo", "all", "average", "none", 1
"ocean_model", "zoo_global_ave", "zoo_global_ave", "ocean-scalar-1-monthly-ym%4yr%2mo", "all", "average", "none", 1
"ocean_model", "det_global_ave", "det_global_ave", "ocean-scalar-1-monthly-ym%4yr%2mo", "all", "average", "none", 1


# monthly 2d snapshots


# monthly 3d snapshots


# monthly 3d prognostic BGC fields

"oceanbgc-3d-alk-1-monthly-mean-y%4yr", 1, "months", 1, "days", "time", 1, "years"
"generic_wombatlite", "alk", "alk", "oceanbgc-3d-alk-1-monthly-mean-y%4yr", "all", "average", "none", 2

"oceanbgc-3d-caco3-1-monthly-mean-y%4yr", 1, "months", 1, "days", "time", 1, "years"
"generic_wombatlite", "caco3", "caco3", "oceanbgc-3d-caco3-1-monthly-mean-y%4yr", "all", "average", "none", 2

"oceanbgc-3d-det-1-monthly-mean-y%4yr", 1, "months", 1, "days", "time", 1, "years"
"generic_wombatlite", "det", "det", "oceanbgc-3d-det-1-monthly-mean-y%4yr", "all", "average", "none", 2

"oceanbgc-3d-detfe-1-monthly-mean-y%4yr", 1, "months", 1, "days", "time", 1, "years"
"generic_wombatlite", "detfe", "detfe", "oceanbgc-3d-detfe-1-monthly-mean-y%4yr", "all", "average", "none", 2

"oceanbgc-3d-dic-1-monthly-mean-y%4yr", 1, "months", 1, "days", "time", 1, "years"
"generic_wombatlite", "dic", "dic", "oceanbgc-3d-dic-1-monthly-mean-y%4yr", "all", "average", "none", 2

"oceanbgc-3d-dicr-1-monthly-mean-y%4yr", 1, "months", 1, "days", "time", 1, "years"
"generic_wombatlite", "dicr", "dicr", "oceanbgc-3d-dicr-1-monthly-mean-y%4yr", "all", "average", "none", 2

"oceanbgc-3d-dicp-1-monthly-mean-y%4yr", 1, "months", 1, "days", "time", 1, "years"
"generic_wombatlite", "dicp", "dicp", "oceanbgc-3d-dicp-1-monthly-mean-y%4yr", "all", "average", "none", 2

"oceanbgc-3d-fe-1-monthly-mean-y%4yr", 1, "months", 1, "days", "time", 1, "years"
"generic_wombatlite", "fe", "fe", "oceanbgc-3d-fe-1-monthly-mean-y%4yr", "all", "average", "none", 2

"oceanbgc-3d-no3-1-monthly-mean-y%4yr", 1, "months", 1, "days", "time", 1, "years"
"generic_wombatlite", "no3", "no3", "oceanbgc-3d-no3-1-monthly-mean-y%4yr", "all", "average", "none", 2

"oceanbgc-3d-o2-1-monthly-mean-y%4yr", 1, "months", 1, "days", "time", 1, "years"
"generic_wombatlite", "o2", "o2", "oceanbgc-3d-o2-1-monthly-mean-y%4yr", "all", "average", "none", 2

"oceanbgc-3d-phy-1-monthly-mean-y%4yr", 1, "months", 1, "days", "time", 1, "years"
"generic_wombatlite", "phy", "phy", "oceanbgc-3d-phy-1-monthly-mean-y%4yr", "all", "average", "none", 2

"oceanbgc-3d-phyfe-1-monthly-mean-y%4yr", 1, "months", 1, "days", "time", 1, "years"
"generic_wombatlite", "phyfe", "phyfe", "oceanbgc-3d-phyfe-1-monthly-mean-y%4yr", "all", "average", "none", 2

"oceanbgc-3d-pchl-1-monthly-mean-y%4yr", 1, "months", 1, "days", "time", 1, "years"
"generic_wombatlite", "pchl", "pchl", "oceanbgc-3d-pchl-1-monthly-mean-y%4yr", "all", "average", "none", 2

"oceanbgc-3d-zoo-1-monthly-mean-y%4yr", 1, "months", 1, "days", "time", 1, "years"
"generic_wombatlite", "zoo", "zoo", "oceanbgc-3d-zoo-1-monthly-mean-y%4yr", "all", "average", "none", 2

"oceanbgc-3d-zoofe-1-monthly-mean-y%4yr", 1, "months", 1, "days", "time", 1, "years"
"generic_wombatlite", "zoofe", "zoofe", "oceanbgc-3d-zoofe-1-monthly-mean-y%4yr", "all", "average", "none", 2


# daily 3d prognostic BGC fields


# monthly 3d diagnostic BGC fields

"oceanbgc-3d-npp3d-1-monthly-mean-y%4yr", 1, "months", 1, "days", "time", 1, "years"
"generic_wombatlite", "npp3d", "npp3d", "oceanbgc-3d-npp3d-1-monthly-mean-y%4yr", "all", "average", "none", 2

"oceanbgc-3d-pprod_gross-1-monthly-mean-y%4yr", 1, "months", 1, "days", "time", 1, "years"
"generic_wombatlite", "pprod_gross", "pprod_gross", "oceanbgc-3d-pprod_gross-1-monthly-mean-y%4yr", "all", "average", "none", 2

"oceanbgc-3d-zprod_gross-1-monthly-mean-y%4yr", 1, "months", 1, "days", "time", 1, "years"
"generic_wombatlite", "zprod_gross", "zprod_gross", "oceanbgc-3d-zprod_gross-1-monthly-mean-y%4yr", "all", "average", "none", 2

"oceanbgc-3d-radbio-1-monthly-mean-y%4yr", 1, "months", 1, "days", "time", 1, "years"
"generic_wombatlite", "radbio", "radbio", "oceanbgc-3d-radbio-1-monthly-mean-y%4yr", "all", "average", "none", 2

"oceanbgc-3d-radmid-1-monthly-mean-y%4yr", 1, "months", 1, "days", "time", 1, "years"
"generic_wombatlite", "radmid", "radmid", "oceanbgc-3d-radmid-1-monthly-mean-y%4yr", "all", "average", "none", 2

"oceanbgc-3d-radmld-1-monthly-mean-y%4yr", 1, "months", 1, "days", "time", 1, "years"
"generic_wombatlite", "radmld", "radmld", "oceanbgc-3d-radmld-1-monthly-mean-y%4yr", "all", "average", "none", 2

"oceanbgc-3d-phy_mu-1-monthly-mean-y%4yr", 1, "months", 1, "days", "time", 1, "years"
"generic_wombatlite", "phy_mu", "phy_mu", "oceanbgc-3d-phy_mu-1-monthly-mean-y%4yr", "all", "average", "none", 2

"oceanbgc-3d-phy_mumax-1-monthly-mean-y%4yr", 1, "months", 1, "days", "time", 1, "years"
"generic_wombatlite", "phy_mumax", "phy_mumax", "oceanbgc-3d-phy_mumax-1-monthly-mean-y%4yr", "all", "average", "none", 2

"oceanbgc-3d-pchl_mu-1-monthly-mean-y%4yr", 1, "months", 1, "days", "time", 1, "years"
"generic_wombatlite", "pchl_mu", "pchl_mu", "oceanbgc-3d-pchl_mu-1-monthly-mean-y%4yr", "all", "average", "none", 2

"oceanbgc-3d-pchl_lpar-1-monthly-mean-y%4yr", 1, "months", 1, "days", "time", 1, "years"
"generic_wombatlite", "pchl_lpar", "pchl_lpar", "oceanbgc-3d-pchl_lpar-1-monthly-mean-y%4yr", "all", "average", "none", 2

"oceanbgc-3d-phy_kni-1-monthly-mean-y%4yr", 1, "months", 1, "days", "time", 1, "years"
"generic_wombatlite", "phy_kni", "phy_kni", "oceanbgc-3d-phy_kni-1-monthly-mean-y%4yr", "all", "average", "none", 2

"oceanbgc-3d-phy_kfe-1-monthly-mean-y%4yr", 1, "months", 1, "days", "time", 1, "years"
"generic_wombatlite", "phy_kfe", "phy_kfe", "oceanbgc-3d-phy_kfe-1-monthly-mean-y%4yr", "all", "average", "none", 2

"oceanbgc-3d-phy_lpar-1-monthly-mean-y%4yr", 1, "months", 1, "days", "time", 1, "years"
"generic_wombatlite", "phy_lpar", "phy_lpar", "oceanbgc-3d-phy_lpar-1-monthly-mean-y%4yr", "all", "average", "none", 2

"oceanbgc-3d-phy_lnit-1-monthly-mean-y%4yr", 1, "months", 1, "days", "time", 1, "years"
"generic_wombatlite", "phy_lnit", "phy_lnit", "oceanbgc-3d-phy_lnit-1-monthly-mean-y%4yr", "all", "average", "none", 2

"oceanbgc-3d-phy_lfer-1-monthly-mean-y%4yr", 1, "months", 1, "days", "time", 1, "years"
"generic_wombatlite", "phy_lfer", "phy_lfer", "oceanbgc-3d-phy_lfer-1-monthly-mean-y%4yr", "all", "average", "none", 2

"oceanbgc-3d-phy_dfeupt-1-monthly-mean-y%4yr", 1, "months", 1, "days", "time", 1, "years"
"generic_wombatlite", "phy_dfeupt", "phy_dfeupt", "oceanbgc-3d-phy_dfeupt-1-monthly-mean-y%4yr", "all", "average", "none", 2

"oceanbgc-3d-phy_feupreg-1-monthly-mean-y%4yr", 1, "months", 1, "days", "time", 1, "years"
"generic_wombatlite", "phy_feupreg", "phy_feupreg", "oceanbgc-3d-phy_feupreg-1-monthly-mean-y%4yr", "all", "average", "none", 2

"oceanbgc-3d-phy_fedoreg-1-monthly-mean-y%4yr", 1, "months", 1, "days", "time", 1, "years"
"generic_wombatlite", "phy_fedoreg", "phy_fedoreg", "oceanbgc-3d-phy_fedoreg-1-monthly-mean-y%4yr", "all", "average", "none", 2

"oceanbgc-3d-feIII-1-monthly-mean-y%4yr", 1, "months", 1, "days", "time", 1, "years"
"generic_wombatlite", "feIII", "feIII", "oceanbgc-3d-feIII-1-monthly-mean-y%4yr", "all", "average", "none", 2

"oceanbgc-3d-felig-1-monthly-mean-y%4yr", 1, "months", 1, "days", "time", 1, "years"
"generic_wombatlite", "felig", "felig", "oceanbgc-3d-felig-1-monthly-mean-y%4yr", "all", "average", "none", 2

"oceanbgc-3d-fecol-1-monthly-mean-y%4yr", 1, "months", 1, "days", "time", 1, "years"
"generic_wombatlite", "fecol", "fecol", "oceanbgc-3d-fecol-1-monthly-mean-y%4yr", "all", "average", "none", 2

"oceanbgc-3d-fesources-1-monthly-mean-y%4yr", 1, "months", 1, "days", "time", 1, "years"
"generic_wombatlite", "fesources", "fesources", "oceanbgc-3d-fesources-1-monthly-mean-y%4yr", "all", "average", "none", 2

"oceanbgc-3d-fesinks-1-monthly-mean-y%4yr", 1, "months", 1, "days", "time", 1, "years"
"generic_wombatlite", "fesinks", "fesinks", "oceanbgc-3d-fesinks-1-monthly-mean-y%4yr", "all", "average", "none", 2

"oceanbgc-3d-feprecip-1-monthly-mean-y%4yr", 1, "months", 1, "days", "time", 1, "years"
"generic_wombatlite", "feprecip", "feprecip", "oceanbgc-3d-feprecip-1-monthly-mean-y%4yr", "all", "average", "none", 2

"oceanbgc-3d-fescaven-1-monthly-mean-y%4yr", 1, "months", 1, "days", "time", 1, "years"
"generic_wombatlite", "fescaven", "fescaven", "oceanbgc-3d-fescaven-1-monthly-mean-y%4yr", "all", "average", "none", 2

"oceanbgc-3d-fescadet-1-monthly-mean-y%4yr", 1, "months", 1, "days", "time", 1, "years"
"generic_wombatlite", "fescadet", "fescadet", "oceanbgc-3d-fescadet-1-monthly-mean-y%4yr", "all", "average", "none", 2

"oceanbgc-3d-feloss-1-monthly-mean-y%4yr", 1, "months", 1, "days", "time", 1, "years"
"generic_wombatlite", "feloss", "feloss", "oceanbgc-3d-feloss-1-monthly-mean-y%4yr", "all", "average", "none", 2

"oceanbgc-3d-fecoag2det-1-monthly-mean-y%4yr", 1, "months", 1, "days", "time", 1, "years"
"generic_wombatlite", "fecoag2det", "fecoag2det", "oceanbgc-3d-fecoag2det-1-monthly-mean-y%4yr", "all", "average", "none", 2

"oceanbgc-3d-htotal-1-monthly-mean-y%4yr", 1, "months", 1, "days", "time", 1, "years"
"generic_wombatlite", "htotal", "htotal", "oceanbgc-3d-htotal-1-monthly-mean-y%4yr", "all", "average", "none", 2

"oceanbgc-3d-ahtotal-1-monthly-mean-y%4yr", 1, "months", 1, "days", "time", 1, "years"
"generic_wombatlite", "ahtotal", "ahtotal", "oceanbgc-3d-ahtotal-1-monthly-mean-y%4yr", "all", "average", "none", 2

"oceanbgc-3d-omega_ara-1-monthly-mean-y%4yr", 1, "months", 1, "days", "time", 1, "years"
"generic_wombatlite", "omega_ara", "omega_ara", "oceanbgc-3d-omega_ara-1-monthly-mean-y%4yr", "all", "average", "none", 2

"oceanbgc-3d-omega_cal-1-monthly-mean-y%4yr", 1, "months", 1, "days", "time", 1, "years"
"generic_wombatlite", "omega_cal", "omega_cal", "oceanbgc-3d-omega_cal-1-monthly-mean-y%4yr", "all", "average", "none", 2

"oceanbgc-3d-co3-1-monthly-mean-y%4yr", 1, "months", 1, "days", "time", 1, "years"
"generic_wombatlite", "co3", "co3", "oceanbgc-3d-co3-1-monthly-mean-y%4yr", "all", "average", "none", 2

"oceanbgc-3d-co2_star-1-monthly-mean-y%4yr", 1, "months", 1, "days", "time", 1, "years"
"generic_wombatlite", "co2_star", "co2_star", "oceanbgc-3d-co2_star-1-monthly-mean-y%4yr", "all", "average", "none", 2

"oceanbgc-3d-pic2poc-1-monthly-mean-y%4yr", 1, "months", 1, "days", "time", 1, "years"
"generic_wombatlite", "pic2poc", "pic2poc", "oceanbgc-3d-pic2poc-1-monthly-mean-y%4yr", "all", "average", "none", 2

"oceanbgc-3d-phygrow-1-monthly-mean-y%4yr", 1, "months", 1, "days", "time", 1, "years"
"generic_wombatlite", "phygrow", "phygrow", "oceanbgc-3d-phygrow-1-monthly-mean-y%4yr", "all", "average", "none", 2

"oceanbgc-3d-phyresp-1-monthly-mean-y%4yr", 1, "months", 1, "days", "time", 1, "years"
"generic_wombatlite", "phyresp", "phyresp", "oceanbgc-3d-phyresp-1-monthly-mean-y%4yr", "all", "average", "none", 2

"oceanbgc-3d-phymort-1-monthly-mean-y%4yr", 1, "months", 1, "days", "time", 1, "years"
"generic_wombatlite", "phymort", "phymort", "oceanbgc-3d-phymort-1-monthly-mean-y%4yr", "all", "average", "none", 2

"oceanbgc-3d-zooeps-1-monthly-mean-y%4yr", 1, "months", 1, "days", "time", 1, "years"
"generic_wombatlite", "zooeps", "zooeps", "oceanbgc-3d-zooeps-1-monthly-mean-y%4yr", "all", "average", "none", 2

"oceanbgc-3d-zoograzphy-1-monthly-mean-y%4yr", 1, "months", 1, "days", "time", 1, "years"
"generic_wombatlite", "zoograzphy", "zoograzphy", "oceanbgc-3d-zoograzphy-1-monthly-mean-y%4yr", "all", "average", "none", 2

"oceanbgc-3d-zoograzdet-1-monthly-mean-y%4yr", 1, "months", 1, "days", "time", 1, "years"
"generic_wombatlite", "zoograzdet", "zoograzdet", "oceanbgc-3d-zoograzdet-1-monthly-mean-y%4yr", "all", "average", "none", 2

"oceanbgc-3d-zooresp-1-monthly-mean-y%4yr", 1, "months", 1, "days", "time", 1, "years"
"generic_wombatlite", "zooresp", "zooresp", "oceanbgc-3d-zooresp-1-monthly-mean-y%4yr", "all", "average", "none", 2

"oceanbgc-3d-zoomort-1-monthly-mean-y%4yr", 1, "months", 1, "days", "time", 1, "years"
"generic_wombatlite", "zoomort", "zoomort", "oceanbgc-3d-zoomort-1-monthly-mean-y%4yr", "all", "average", "none", 2

"oceanbgc-3d-zooslopphy-1-monthly-mean-y%4yr", 1, "months", 1, "days", "time", 1, "years"
"generic_wombatlite", "zooslopphy", "zooslopphy", "oceanbgc-3d-zooslopphy-1-monthly-mean-y%4yr", "all", "average", "none", 2

"oceanbgc-3d-zooslopdet-1-monthly-mean-y%4yr", 1, "months", 1, "days", "time", 1, "years"
"generic_wombatlite", "zooslopdet", "zooslopdet", "oceanbgc-3d-zooslopdet-1-monthly-mean-y%4yr", "all", "average", "none", 2

"oceanbgc-3d-zooexcrphy-1-monthly-mean-y%4yr", 1, "months", 1, "days", "time", 1, "years"
"generic_wombatlite", "zooexcrphy", "zooexcrphy", "oceanbgc-3d-zooexcrphy-1-monthly-mean-y%4yr", "all", "average", "none", 2

"oceanbgc-3d-zooexcrdet-1-monthly-mean-y%4yr", 1, "months", 1, "days", "time", 1, "years"
"generic_wombatlite", "zooexcrdet", "zooexcrdet", "oceanbgc-3d-zooexcrdet-1-monthly-mean-y%4yr", "all", "average", "none", 2

"oceanbgc-3d-reminr-1-monthly-mean-y%4yr", 1, "months", 1, "days", "time", 1, "years"
"generic_wombatlite", "reminr", "reminr", "oceanbgc-3d-reminr-1-monthly-mean-y%4yr", "all", "average", "none", 2

"oceanbgc-3d-detremi-1-monthly-mean-y%4yr", 1, "months", 1, "days", "time", 1, "years"
"generic_wombatlite", "detremi", "detremi", "oceanbgc-3d-detremi-1-monthly-mean-y%4yr", "all", "average", "none", 2

"oceanbgc-3d-dissrat-1-monthly-mean-y%4yr", 1, "months", 1, "days", "time", 1, "years"
"generic_wombatlite", "dissrat", "dissrat", "oceanbgc-3d-dissrat-1-monthly-mean-y%4yr", "all", "average", "none", 2

"oceanbgc-3d-caldiss-1-monthly-mean-y%4yr", 1, "months", 1, "days", "time", 1, "years"
"generic_wombatlite", "caldiss", "caldiss", "oceanbgc-3d-caldiss-1-monthly-mean-y%4yr", "all", "average", "none", 2

"oceanbgc-3d-det_vmove-1-monthly-mean-y%4yr", 1, "months", 1, "days", "time", 1, "years"
"generic_wombatlite", "det_vmove", "det_vmove", "oceanbgc-3d-det_vmove-1-monthly-mean-y%4yr", "all", "average", "none", 2

"oceanbgc-3d-detfe_vmove-1-monthly-mean-y%4yr", 1, "months", 1, "days", "time", 1, "years"
"generic_wombatlite", "detfe_vmove", "detfe_vmove", "oceanbgc-3d-detfe_vmove-1-monthly-mean-y%4yr", "all", "average", "none", 2

"oceanbgc-3d-caco3_vmove-1-monthly-mean-y%4yr", 1, "months", 1, "days", "time", 1, "years"
"generic_wombatlite", "caco3_vmove", "caco3_vmove", "oceanbgc-3d-caco3_vmove-1-monthly-mean-y%4yr", "all", "average", "none", 2

"oceanbgc-3d-alk_correct-1-monthly-mean-y%4yr", 1, "months", 1, "days", "time", 1, "years"
"generic_wombatlite", "alk_correct", "alk_correct", "oceanbgc-3d-alk_correct-1-monthly-mean-y%4yr", "all", "average", "none", 2

"oceanbgc-3d-dic_correct-1-monthly-mean-y%4yr", 1, "months", 1, "days", "time", 1, "years"
"generic_wombatlite", "dic_correct", "dic_correct", "oceanbgc-3d-dic_correct-1-monthly-mean-y%4yr", "all", "average", "none", 2


# monthly 2d diagnostic BGC fields

"oceanbgc-2d-paco2-1-monthly-mean-y%4yr", 1, "months", 1, "days", "time", 1, "years"
"generic_wombatlite", "paco2", "paco2", "oceanbgc-2d-paco2-1-monthly-mean-y%4yr", "all", "average", "none", 2

"oceanbgc-2d-pco2-1-monthly-mean-y%4yr", 1, "months", 1, "days", "time", 1, "years"
"generic_wombatlite", "pco2", "pco2", "oceanbgc-2d-pco2-1-monthly-mean-y%4yr", "all", "average", "none", 2

"oceanbgc-2d-light_limit-1-monthly-mean-y%4yr", 1, "months", 1, "days", "time", 1, "years"
"generic_wombatlite", "light_limit", "light_limit", "oceanbgc-2d-light_limit-1-monthly-mean-y%4yr", "all", "average", "none", 2

"oceanbgc-2d-radbio1-1-monthly-mean-y%4yr", 1, "months", 1, "days", "time", 1, "years"
"generic_wombatlite", "radbio1", "radbio1", "oceanbgc-2d-radbio1-1-monthly-mean-y%4yr", "all", "average", "none", 2

"oceanbgc-2d-det_sed_remin-1-monthly-mean-y%4yr", 1, "months", 1, "days", "time", 1, "years"
"generic_wombatlite", "det_sed_remin", "det_sed_remin", "oceanbgc-2d-det_sed_remin-1-monthly-mean-y%4yr", "all", "average", "none", 2

"oceanbgc-2d-det_sed_depst-1-monthly-mean-y%4yr", 1, "months", 1, "days", "time", 1, "years"
"generic_wombatlite", "det_sed_depst", "det_sed_depst", "oceanbgc-2d-det_sed_depst-1-monthly-mean-y%4yr", "all", "average", "none", 2

"oceanbgc-2d-detfe_sed_remin-1-monthly-mean-y%4yr", 1, "months", 1, "days", "time", 1, "years"
"generic_wombatlite", "detfe_sed_remin", "detfe_sed_remin", "oceanbgc-2d-detfe_sed_remin-1-monthly-mean-y%4yr", "all", "average", "none", 2

"oceanbgc-2d-detfe_sed_depst-1-monthly-mean-y%4yr", 1, "months", 1, "days", "time", 1, "years"
"generic_wombatlite", "detfe_sed_depst", "detfe_sed_depst", "oceanbgc-2d-detfe_sed_depst-1-monthly-mean-y%4yr", "all", "average", "none", 2

"oceanbgc-2d-caco3_sed_remin-1-monthly-mean-y%4yr", 1, "months", 1, "days", "time", 1, "years"
"generic_wombatlite", "caco3_sed_remin", "caco3_sed_remin", "oceanbgc-2d-caco3_sed_remin-1-monthly-mean-y%4yr", "all", "average", "none", 2

"oceanbgc-2d-caco3_sed_depst-1-monthly-mean-y%4yr", 1, "months", 1, "days", "time", 1, "years"
"generic_wombatlite", "caco3_sed_depst", "caco3_sed_depst", "oceanbgc-2d-caco3_sed_depst-1-monthly-mean-y%4yr", "all", "average", "none", 2

"oceanbgc-2d-fbury-1-monthly-mean-y%4yr", 1, "months", 1, "days", "time", 1, "years"
"generic_wombatlite", "fbury", "fbury", "oceanbgc-2d-fbury-1-monthly-mean-y%4yr", "all", "average", "none", 2

"oceanbgc-2d-wdet100-1-monthly-mean-y%4yr", 1, "months", 1, "days", "time", 1, "years"
"generic_wombatlite", "wdet100", "wdet100", "oceanbgc-2d-wdet100-1-monthly-mean-y%4yr", "all", "average", "none", 2

"oceanbgc-2d-npp2d-1-monthly-mean-y%4yr", 1, "months", 1, "days", "time", 1, "years"
"generic_wombatlite", "npp2d", "npp2d", "oceanbgc-2d-npp2d-1-monthly-mean-y%4yr", "all", "average", "none", 2

"oceanbgc-2d-npp1-1-monthly-mean-y%4yr", 1, "months", 1, "days", "time", 1, "years"
"generic_wombatlite", "npp1", "npp1", "oceanbgc-2d-npp1-1-monthly-mean-y%4yr", "all", "average", "none", 2

"oceanbgc-2d-pprod_gross_2d-1-monthly-mean-y%4yr", 1, "months", 1, "days", "time", 1, "years"
"generic_wombatlite", "pprod_gross_2d", "pprod_gross_2d", "oceanbgc-2d-pprod_gross_2d-1-monthly-mean-y%4yr", "all", "average", "none", 2

"oceanbgc-2d-dic_intmld-1-monthly-mean-y%4yr", 1, "months", 1, "days", "time", 1, "years"
"generic_wombatlite", "dic_intmld", "dic_intmld", "oceanbgc-2d-dic_intmld-1-monthly-mean-y%4yr", "all", "average", "none", 2

"oceanbgc-2d-o2_intmld-1-monthly-mean-y%4yr", 1, "months", 1, "days", "time", 1, "years"
"generic_wombatlite", "o2_intmld", "o2_intmld", "oceanbgc-2d-o2_intmld-1-monthly-mean-y%4yr", "all", "average", "none", 2

"oceanbgc-2d-no3_intmld-1-monthly-mean-y%4yr", 1, "months", 1, "days", "time", 1, "years"
"generic_wombatlite", "no3_intmld", "no3_intmld", "oceanbgc-2d-no3_intmld-1-monthly-mean-y%4yr", "all", "average", "none", 2

"oceanbgc-2d-fe_intmld-1-monthly-mean-y%4yr", 1, "months", 1, "days", "time", 1, "years"
"generic_wombatlite", "fe_intmld", "fe_intmld", "oceanbgc-2d-fe_intmld-1-monthly-mean-y%4yr", "all", "average", "none", 2

"oceanbgc-2d-phy_intmld-1-monthly-mean-y%4yr", 1, "months", 1, "days", "time", 1, "years"
"generic_wombatlite", "phy_intmld", "phy_intmld", "oceanbgc-2d-phy_intmld-1-monthly-mean-y%4yr", "all", "average", "none", 2

"oceanbgc-2d-det_intmld-1-monthly-mean-y%4yr", 1, "months", 1, "days", "time", 1, "years"
"generic_wombatlite", "det_intmld", "det_intmld", "oceanbgc-2d-det_intmld-1-monthly-mean-y%4yr", "all", "average", "none", 2

"oceanbgc-2d-pprod_gross_intmld-1-monthly-mean-y%4yr", 1, "months", 1, "days", "time", 1, "years"
"generic_wombatlite", "pprod_gross_intmld", "pprod_gross_intmld", "oceanbgc-2d-pprod_gross_intmld-1-monthly-mean-y%4yr", "all", "average", "none", 2

"oceanbgc-2d-npp_intmld-1-monthly-mean-y%4yr", 1, "months", 1, "days", "time", 1, "years"
"generic_wombatlite", "npp_intmld", "npp_intmld", "oceanbgc-2d-npp_intmld-1-monthly-mean-y%4yr", "all", "average", "none", 2

"oceanbgc-2d-radbio_intmld-1-monthly-mean-y%4yr", 1, "months", 1, "days", "time", 1, "years"
"generic_wombatlite", "radbio_intmld", "radbio_intmld", "oceanbgc-2d-radbio_intmld-1-monthly-mean-y%4yr", "all", "average", "none", 2

"oceanbgc-2d-dic_int100-1-monthly-mean-y%4yr", 1, "months", 1, "days", "time", 1, "years"
"generic_wombatlite", "dic_int100", "dic_int100", "oceanbgc-2d-dic_int100-1-monthly-mean-y%4yr", "all", "average", "none", 2

"oceanbgc-2d-o2_int100-1-monthly-mean-y%4yr", 1, "months", 1, "days", "time", 1, "years"
"generic_wombatlite", "o2_int100", "o2_int100", "oceanbgc-2d-o2_int100-1-monthly-mean-y%4yr", "all", "average", "none", 2

"oceanbgc-2d-no3_int100-1-monthly-mean-y%4yr", 1, "months", 1, "days", "time", 1, "years"
"generic_wombatlite", "no3_int100", "no3_int100", "oceanbgc-2d-no3_int100-1-monthly-mean-y%4yr", "all", "average", "none", 2

"oceanbgc-2d-fe_int100-1-monthly-mean-y%4yr", 1, "months", 1, "days", "time", 1, "years"
"generic_wombatlite", "fe_int100", "fe_int100", "oceanbgc-2d-fe_int100-1-monthly-mean-y%4yr", "all", "average", "none", 2

"oceanbgc-2d-phy_int100-1-monthly-mean-y%4yr", 1, "months", 1, "days", "time", 1, "years"
"generic_wombatlite", "phy_int100", "phy_int100", "oceanbgc-2d-phy_int100-1-monthly-mean-y%4yr", "all", "average", "none", 2

"oceanbgc-2d-det_int100-1-monthly-mean-y%4yr", 1, "months", 1, "days", "time", 1, "years"
"generic_wombatlite", "det_int100", "det_int100", "oceanbgc-2d-det_int100-1-monthly-mean-y%4yr", "all", "average", "none", 2

"oceanbgc-2d-pprod_gross_int100-1-monthly-mean-y%4yr", 1, "months", 1, "days", "time", 1, "years"
"generic_wombatlite", "pprod_gross_int100", "pprod_gross_int100", "oceanbgc-2d-pprod_gross_int100-1-monthly-mean-y%4yr", "all", "average", "none", 2

"oceanbgc-2d-npp_int100-1-monthly-mean-y%4yr", 1, "months", 1, "days", "time", 1, "years"
"generic_wombatlite", "npp_int100", "npp_int100", "oceanbgc-2d-npp_int100-1-monthly-mean-y%4yr", "all", "average", "none", 2

"oceanbgc-2d-radbio_int100-1-monthly-mean-y%4yr", 1, "months", 1, "days", "time", 1, "years"
"generic_wombatlite", "radbio_int100", "radbio_int100", "oceanbgc-2d-radbio_int100-1-monthly-mean-y%4yr", "all", "average", "none", 2

"oceanbgc-2d-o2_stf-1-monthly-mean-y%4yr", 1, "months", 1, "days", "time", 1, "years"
"generic_wombatlite", "o2_stf", "o2_stf", "oceanbgc-2d-o2_stf-1-monthly-mean-y%4yr", "all", "average", "none", 2

"oceanbgc-2d-dic_stf-1-monthly-mean-y%4yr", 1, "months", 1, "days", "time", 1, "years"
"generic_wombatlite", "dic_stf", "dic_stf", "oceanbgc-2d-dic_stf-1-monthly-mean-y%4yr", "all", "average", "none", 2

"oceanbgc-2d-dicp_stf-1-monthly-mean-y%4yr", 1, "months", 1, "days", "time", 1, "years"
"generic_wombatlite", "dicp_stf", "dicp_stf", "oceanbgc-2d-dicp_stf-1-monthly-mean-y%4yr", "all", "average", "none", 2

"oceanbgc-2d-fe_stf-1-monthly-mean-y%4yr", 1, "months", 1, "days", "time", 1, "years"
"generic_wombatlite", "fe_stf", "fe_stf", "oceanbgc-2d-fe_stf-1-monthly-mean-y%4yr", "all", "average", "none", 2

"oceanbgc-2d-det_sediment-1-monthly-mean-y%4yr", 1, "months", 1, "days", "time", 1, "years"
"generic_wombatlite", "det_sediment", "det_sediment", "oceanbgc-2d-det_sediment-1-monthly-mean-y%4yr", "all", "average", "none", 2

"oceanbgc-2d-detfe_sediment-1-monthly-mean-y%4yr", 1, "months", 1, "days", "time", 1, "years"
"generic_wombatlite", "detfe_sediment", "detfe_sediment", "oceanbgc-2d-detfe_sediment-1-monthly-mean-y%4yr", "all", "average", "none", 2

"oceanbgc-2d-caco3_sediment-1-monthly-mean-y%4yr", 1, "months", 1, "days", "time", 1, "years"
"generic_wombatlite", "caco3_sediment", "caco3_sediment", "oceanbgc-2d-caco3_sediment-1-monthly-mean-y%4yr", "all", "average", "none", 2

"oceanbgc-2d-zeuphot-1-monthly-mean-y%4yr", 1, "months", 1, "days", "time", 1, "years"
"generic_wombatlite", "zeuphot", "zeuphot", "oceanbgc-2d-zeuphot-1-monthly-mean-y%4yr", "all", "average", "none", 2

"oceanbgc-2d-alk_correct-1-monthly-mean-y%4yr", 1, "months", 1, "days", "time", 1, "years"