"prog_tracers","ocean_mod","temp"
horizontal-advection-scheme = mdppm
vertical-advection-scheme = mdppm
restart_file  = ocean_temp_salt.res.nc
ppm_hlimiter = 3
ppm_vlimiter = 3
/
"prog_tracers","ocean_mod","salt"
horizontal-advection-scheme = mdppm
vertical-advection-scheme = mdppm
restart_file  = ocean_temp_salt.res.nc
ppm_hlimiter = 3
ppm_vlimiter = 3
/
"tracer_packages","ocean_mod","ocean_age_tracer"
names = global
const_init_tracer = .true.
horizontal-advection-scheme = mdppm
vertical-advection-scheme = mdppm
ppm_hlimiter = 3
ppm_vlimiter = 3
restart_file = ocean_age.res.nc
min_tracer_limit=0.0
/
"namelists","ocean_mod","ocean_age_tracer/global"
slat = -90.0
nlat =  90.0
wlon =   0.0
elon = 360.0
/
# added by FRE: sphum must be present in atmos
# specific humidity for moist runs
 "TRACER", "atmos_mod", "sphum"
           "longname",     "specific humidity"
           "units",        "kg/kg"
       "profile_type", "fixed", "surface_value=3.e-6" /
# prognotic cloud scheme tracers
  "TRACER", "atmos_mod", "liq_wat"
            "longname",     "cloud liquid specific humidity"
            "units",        "kg/kg" /
  "TRACER", "atmos_mod", "ice_wat"
            "longname",     "cloud ice water specific humidity"
            "units",        "kg/kg" /
  "TRACER", "atmos_mod", "cld_amt"
            "longname",     "cloud fraction"
            "units",        "none" /
# test tracer for radon
# "TRACER", "atmos_mod", "radon"
#           "longname",     "radon test tracer"
#           "units",        "kg/kg" /
       "TRACER", "land_mod", "sphum"
       "longname",     "specific humidity"
       "units",        "kg/kg" /

"rayleigh_damp_table","ocean_mod","rayleigh_damp_table"
"rayleigh","Lombok","itable=36,jtable=112,ktable_1=1,ktable_2=50,rayleigh_damp_table=5400"
"rayleigh","Ombai","itable=44,jtable=111,ktable_1=1,ktable_2=50,rayleigh_damp_table=5400"
"rayleigh","Torres","itable=62,jtable=106,ktable_1=1,ktable_2=50,rayleigh_damp_table=5400"
"rayleigh","Torres","itable=62,jtable=107,ktable_1=1,ktable_2=50,rayleigh_damp_table=5400"
"rayleigh","Torres","itable=62,jtable=108,ktable_1=1,ktable_2=50,rayleigh_damp_table=5400"
"rayleigh","Torres","itable=62,jtable=109,ktable_1=1,ktable_2=50,rayleigh_damp_table=5400"/

"namelists","ocean_mod","generic_wombatlite/*global*"
/
"namelists","ocean_mod","generic_wombatlite"
init = f
#
no3_src_file = INPUT/ocean_wombatlite.res.nc
no3_src_var_name = no3
no3_src_var_unit = none
no3_dest_var_name = no3
no3_dest_var_unit = mol kg-1
no3_src_var_record = 1
no3_src_var_gridspec = NONE
no3_valid_min = 0.0
#
phy_src_file = INPUT/ocean_wombatlite.res.nc
phy_src_var_name = phy
phy_src_var_unit = none
phy_dest_var_name = phy
phy_dest_var_unit = mol kg-1
phy_src_var_record = 1
phy_src_var_gridspec = NONE
phy_valid_min = 0.0
#
o2_src_file = INPUT/ocean_wombatlite.res.nc
o2_src_var_name = o2
o2_src_var_unit = none
o2_dest_var_name = o2
o2_dest_var_unit = mol kg-1
o2_src_var_record = 1
o2_src_var_gridspec = NONE
o2_valid_min = 0.0
#
zoo_src_file = INPUT/ocean_wombatlite.res.nc
zoo_src_var_name = zoo
zoo_src_var_unit = none
zoo_dest_var_name = zoo
zoo_dest_var_unit = mol kg-1
zoo_src_var_record = 1
zoo_src_var_gridspec = NONE
zoo_valid_min = 0.0
#
det_src_file = INPUT/ocean_wombatlite.res.nc
det_src_var_name = det
det_src_var_unit = none
det_dest_var_name = det
det_dest_var_unit = mol kg-1
det_src_var_record = 1
det_src_var_gridspec = NONE
det_valid_min = 0.0
#
caco3_src_file = INPUT/ocean_wombatlite.res.nc
caco3_src_var_name = caco3
caco3_src_var_unit = none
caco3_dest_var_name = caco3
caco3_dest_var_unit = mol kg-1
caco3_src_var_record = 1
caco3_src_var_gridspec = NONE
caco3_valid_min = 0.0
#
adic_src_file = INPUT/ocean_wombatlite.res.nc
adic_src_var_name = adic
adic_src_var_unit = none
adic_dest_var_name = adic
adic_dest_var_unit = mol kg-1
adic_src_var_record = 1
adic_src_var_gridspec = NONE
adic_valid_min = 0.0
#
dic_src_file = INPUT/ocean_wombatlite.res.nc
dic_src_var_name = dic
dic_src_var_unit = none
dic_dest_var_name = dic
dic_dest_var_unit = mol kg-1
dic_src_var_record = 1
dic_src_var_gridspec = NONE
dic_valid_min = 0.0
#
alk_src_file = INPUT/ocean_wombatlite.res.nc
alk_src_var_name = alk
alk_src_var_unit = none
alk_dest_var_name = alk
alk_dest_var_unit = mol kg-1
alk_src_var_record = 1
alk_src_var_gridspec = NONE
alk_valid_min = 0.0
#
fe_src_file = INPUT/ocean_wombatlite.res.nc
fe_src_var_name = fe
fe_src_var_unit = none
fe_dest_var_name = fe
fe_dest_var_unit = mol kg-1
fe_src_var_record = 1
fe_src_var_gridspec = NONE
fe_valid_min = 0.0
#
caco3_sediment_src_file = INPUT/ocean_wombatlite.res.nc
caco3_sediment_src_var_name = caco3_sediment
caco3_sediment_src_var_unit = none
caco3_sediment_dest_var_name = caco3_sediment
caco3_sediment_dest_var_unit = mol kg-1
caco3_sediment_src_var_record = 1
caco3_sediment_src_var_gridspec = NONE
caco3_sediment_valid_min = 0.0
#
det_sediment_src_file = INPUT/ocean_wombatlite.res.nc
det_sediment_src_var_name = det_sediment
det_sediment_src_var_unit = none
det_sediment_dest_var_name = det_sediment
det_sediment_dest_var_unit = mol kg-1
det_sediment_src_var_record = 1
det_sediment_src_var_gridspec = NONE
det_sediment_valid_min = 0.0
/
