"prog_tracers","ocean_mod","temp"
horizontal-advection-scheme = mdppm
vertical-advection-scheme = mdppm
restart_file  = ocean_temp_salt.res.nc
ppm_hlimiter = 3
ppm_vlimiter = 3
/
"prog_tracers","ocean_mod","salt"
horizontal-advection-scheme = mdppm
vertical-advection-scheme = mdppm
restart_file  = ocean_temp_salt.res.nc
ppm_hlimiter = 3
ppm_vlimiter = 3
/
"tracer_packages","ocean_mod","ocean_age_tracer"
names = global
const_init_tracer = .true.
horizontal-advection-scheme = mdppm
vertical-advection-scheme = mdppm
ppm_hlimiter = 3
ppm_vlimiter = 3
restart_file = ocean_age.res.nc
min_tracer_limit=0.0
/
"namelists","ocean_mod","ocean_age_tracer/global"
slat = -90.0
nlat =  90.0
wlon =   0.0
elon = 360.0
/
# added by FRE: sphum must be present in atmos
# specific humidity for moist runs
 "TRACER", "atmos_mod", "sphum"
           "longname",     "specific humidity"
           "units",        "kg/kg"
       "profile_type", "fixed", "surface_value=3.e-6" /
# prognotic cloud scheme tracers
  "TRACER", "atmos_mod", "liq_wat"
            "longname",     "cloud liquid specific humidity"
            "units",        "kg/kg" /
  "TRACER", "atmos_mod", "ice_wat"
            "longname",     "cloud ice water specific humidity"
            "units",        "kg/kg" /
  "TRACER", "atmos_mod", "cld_amt"
            "longname",     "cloud fraction"
            "units",        "none" /
# test tracer for radon
# "TRACER", "atmos_mod", "radon"
#           "longname",     "radon test tracer"
#           "units",        "kg/kg" /
       "TRACER", "land_mod", "sphum"
       "longname",     "specific humidity"
       "units",        "kg/kg" /

"rayleigh_damp_table","ocean_mod","rayleigh_damp_table"
"rayleigh","Lombok","itable=36,jtable=112,ktable_1=1,ktable_2=50,rayleigh_damp_table=5400"
"rayleigh","Ombai","itable=44,jtable=111,ktable_1=1,ktable_2=50,rayleigh_damp_table=5400"
"rayleigh","Torres","itable=62,jtable=106,ktable_1=1,ktable_2=50,rayleigh_damp_table=5400"
"rayleigh","Torres","itable=62,jtable=107,ktable_1=1,ktable_2=50,rayleigh_damp_table=5400"
"rayleigh","Torres","itable=62,jtable=108,ktable_1=1,ktable_2=50,rayleigh_damp_table=5400"
"rayleigh","Torres","itable=62,jtable=109,ktable_1=1,ktable_2=50,rayleigh_damp_table=5400"/

"namelists","ocean_mod","generic_wombatlite/*global*"
/
"namelists","ocean_mod","generic_wombatlite"
init = f
dic_min = 1000.0
dic_max = 3000.0
alk_min = 1000.0
alk_max = 3000.0
alphabio = 2.25
abioa = 1.162e-5
bbioa = 1.050
bbioh = 1.064
phykn = 2.0
phykf = 1.1
phyminqc = 0.004
phyoptqc = 0.036
phyoptqf = 10e-6
phymaxqf = 50e-6
phylmor = 1.562e-7
phyqmor = 5.787e-7
phybiot = 0.6
zooassi = 0.25
zooexcr = 0.75
zookz = 0.25
zoogmax = 3.472e-5
zooepsmin = 6.e-8
zooepsmax = 7.e-7
zprefphy = 1.0
zprefdet = 0.50
zoolmor = 3.3e-8
zooqmor = 9.5e-6
detlrem = 4.6e-6
wdetbio = 3.1e-4
wdetmax = 4.2e-4
detlrem_sed = 1.157e-7
wcaco3 = 1.6e-4
caco3lrem = 1.157e-7
caco3lrem_sed = 1.157e-7
f_inorg = 0.04
disscal = 0.25
dissara = 0.10
dissdet = 0.10
ligand = 0.5
knano_dfe = 0.015
kscav_dfe = 0.0001
kcoag_dfe = 1.6E-08
#
no3_src_file = INPUT/ocean_wombatlite.res.nc
no3_src_var_name = no3
no3_src_var_unit = none
no3_dest_var_name = no3
no3_dest_var_unit = mol kg-1
no3_src_var_record = 1
no3_src_var_gridspec = NONE
no3_valid_min = 0.0
#
phy_src_file = INPUT/ocean_wombatlite.res.nc
phy_src_var_name = phy
phy_src_var_unit = none
phy_dest_var_name = phy
phy_dest_var_unit = mol kg-1
phy_src_var_record = 1
phy_src_var_gridspec = NONE
phy_valid_min = 0.0
#
pchl_src_file = INPUT/ocean_wombatlite.res.nc
pchl_src_var_name = pchl
pchl_src_var_unit = none
pchl_dest_var_name = pchl
pchl_dest_var_unit = mol kg-1
pchl_src_var_record = 1
pchl_src_var_gridspec = NONE
pchl_valid_min = 0.0
#
phyfe_src_file = INPUT/ocean_wombatlite.res.nc
phyfe_src_var_name = phyfe
phyfe_src_var_unit = none
phyfe_dest_var_name = phyfe
phyfe_dest_var_unit = mol kg-1
phyfe_src_var_record = 1
phyfe_src_var_gridspec = NONE
phyfe_valid_min = 0.0
#
o2_src_file = INPUT/ocean_wombatlite.res.nc
o2_src_var_name = o2
o2_src_var_unit = none
o2_dest_var_name = o2
o2_dest_var_unit = mol kg-1
o2_src_var_record = 1
o2_src_var_gridspec = NONE
o2_valid_min = 0.0
#
zoo_src_file = INPUT/ocean_wombatlite.res.nc
zoo_src_var_name = zoo
zoo_src_var_unit = none
zoo_dest_var_name = zoo
zoo_dest_var_unit = mol kg-1
zoo_src_var_record = 1
zoo_src_var_gridspec = NONE
zoo_valid_min = 0.0
#
zoofe_src_file = INPUT/ocean_wombatlite.res.nc
zoofe_src_var_name = zoofe
zoofe_src_var_unit = none
zoofe_dest_var_name = zoofe
zoofe_dest_var_unit = mol kg-1
zoofe_src_var_record = 1
zoofe_src_var_gridspec = NONE
zoofe_valid_min = 0.0
#
det_src_file = INPUT/ocean_wombatlite.res.nc
det_src_var_name = det
det_src_var_unit = none
det_dest_var_name = det
det_dest_var_unit = mol kg-1
det_src_var_record = 1
det_src_var_gridspec = NONE
det_valid_min = 0.0
#
detfe_src_file = INPUT/ocean_wombatlite.res.nc
detfe_src_var_name = detfe
detfe_src_var_unit = none
detfe_dest_var_name = detfe
detfe_dest_var_unit = mol kg-1
detfe_src_var_record = 1
detfe_src_var_gridspec = NONE
detfe_valid_min = 0.0
#
caco3_src_file = INPUT/ocean_wombatlite.res.nc
caco3_src_var_name = caco3
caco3_src_var_unit = none
caco3_dest_var_name = caco3
caco3_dest_var_unit = mol kg-1
caco3_src_var_record = 1
caco3_src_var_gridspec = NONE
caco3_valid_min = 0.0
#
dicr_src_file = INPUT/ocean_wombatlite.res.nc
dicr_src_var_name = dicr
dicr_src_var_unit = none
dicr_dest_var_name = dicr
dicr_dest_var_unit = mol kg-1
dicr_src_var_record = 1
dicr_src_var_gridspec = NONE
dicr_valid_min = 0.0
#
dicp_src_file = INPUT/ocean_wombatlite.res.nc
dicp_src_var_name = dicp
dicp_src_var_unit = none
dicp_dest_var_name = dicp
dicp_dest_var_unit = mol kg-1
dicp_src_var_record = 1
dicp_src_var_gridspec = NONE
dicp_valid_min = 0.0
#
dic_src_file = INPUT/ocean_wombatlite.res.nc
dic_src_var_name = dic
dic_src_var_unit = none
dic_dest_var_name = dic
dic_dest_var_unit = mol kg-1
dic_src_var_record = 1
dic_src_var_gridspec = NONE
dic_valid_min = 0.0
#
alk_src_file = INPUT/ocean_wombatlite.res.nc
alk_src_var_name = alk
alk_src_var_unit = none
alk_dest_var_name = alk
alk_dest_var_unit = mol kg-1
alk_src_var_record = 1
alk_src_var_gridspec = NONE
alk_valid_min = 0.0
#
fe_src_file = INPUT/ocean_wombatlite.res.nc
fe_src_var_name = fe
fe_src_var_unit = none
fe_dest_var_name = fe
fe_dest_var_unit = mol kg-1
fe_src_var_record = 1
fe_src_var_gridspec = NONE
fe_valid_min = 0.0
#
caco3_sediment_src_file = INPUT/ocean_wombatlite.res.nc
caco3_sediment_src_var_name = caco3_sediment
caco3_sediment_src_var_unit = none
caco3_sediment_dest_var_name = caco3_sediment
caco3_sediment_dest_var_unit = mol kg-1
caco3_sediment_src_var_record = 1
caco3_sediment_src_var_gridspec = NONE
caco3_sediment_valid_min = 0.0
#
det_sediment_src_file = INPUT/ocean_wombatlite.res.nc
det_sediment_src_var_name = det_sediment
det_sediment_src_var_unit = none
det_sediment_dest_var_name = det_sediment
det_sediment_dest_var_unit = mol kg-1
det_sediment_src_var_record = 1
det_sediment_src_var_gridspec = NONE
det_sediment_valid_min = 0.0
#
detfe_sediment_src_file = INPUT/ocean_wombatlite.res.nc
detfe_sediment_src_var_name = detfe_sediment
detfe_sediment_src_var_unit = none
detfe_sediment_dest_var_name = detfe_sediment
detfe_sediment_dest_var_unit = mol kg-1
detfe_sediment_src_var_record = 1
detfe_sediment_src_var_gridspec = NONE
detfe_sediment_valid_min = 0.0
#
detbury_src_file = INPUT/ocean_wombatlite.res.nc
detbury_src_var_name = detbury
detbury_src_var_unit = none
detbury_dest_var_name = detbury
detbury_dest_var_unit = mol kg-1
detbury_src_var_record = 1
detbury_src_var_gridspec = NONE
detbury_valid_min = 0.0
#
caco3bury_src_file = INPUT/ocean_wombatlite.res.nc
caco3bury_src_var_name = caco3bury
caco3bury_src_var_unit = none
caco3bury_dest_var_name = caco3bury
caco3bury_dest_var_unit = mol kg-1
caco3bury_src_var_record = 1
caco3bury_src_var_gridspec = NONE
caco3bury_valid_min = 0.0
/
